xflr5 v6.61

WP4
T1-10.0 m/s-Panel-Inviscid
QInf  =   10.000000 m/s
Alpha =   10.000000
Beta  =    0.000°
Phi   =    0.000°
Ctrl  =    0.000
CL    =    0.964418
Cy    =   -0.000000
Cd    =    0.029426     ICd   =    0.029426     PCd   =    0.000000
Cl   = -1.03809e-14
Cm   =    -1.13864
ICn   =    0.000000     PCn   =    0.000000 
XCP   =    7.261300     YCP   =    0.000000     ZCP   =    0.536883  
XNP   =    0.000000
Bending = 66508.082409

Main Wing
  y-span        Chord      Ai         Cl        PCd          ICd        CmGeom    CmAirf@chord/4    XTrtop    XTrBot      XCP       BM
  -24.8645     0.9311    -4.033    0.594042    0.000000    0.041874   -9.224111    0.028509     0.0000    0.0000    0.2022    0.0000
  -24.6946     0.9874    -3.047    0.939920    0.000000    0.049999   -13.513873    0.006150     0.0000    0.0000    0.2413    0.4958
  -24.3561     1.0996    -1.977    1.163159    0.000000    0.040115   -14.788314   -0.010216     0.0000    0.0000    0.2561    6.4468
  -23.8512     1.2670    -1.173    1.261940    0.000000    0.025804   -13.707727   -0.024089     0.0000    0.0000    0.2661   32.2468
  -23.1833     1.4884    -0.759    1.288140    0.000000    0.017024   -11.644079   -0.030396     0.0000    0.0000    0.2705   105.2802
  -22.3571     1.7623    -0.629    1.279522    0.000000    0.014005   -9.484386   -0.032852     0.0000    0.0000    0.2725   269.1639
  -21.3782     2.0869    -0.658    1.255022    0.000000    0.014367   -7.575764   -0.033689     0.0000    0.0000    0.2736   587.1415
  -20.2532     2.4598    -0.769    1.223228    0.000000    0.016364   -5.998190   -0.033859     0.0000    0.0000    0.2745   1145.1426
  -18.9899     2.8786    -0.920    1.187933    0.000000    0.019024   -4.730365   -0.033733     0.0000    0.0000    0.2752   2053.8161
  -17.5969     3.3404    -1.091    1.150792    0.000000    0.021859   -3.722241   -0.033473     0.0000    0.0000    0.2758   3448.9277
  -16.0836     3.8421    -1.271    1.112455    0.000000    0.024618   -2.922293   -0.033151     0.0000    0.0000    0.2766   5489.6636
  -14.4605     4.3801    -1.454    1.073078    0.000000    0.027166   -2.286291   -0.032808     0.0000    0.0000    0.2773   8354.5474
  -12.7386     4.9510    -1.637    1.032542    0.000000    0.029418   -1.778800   -0.032481     0.0000    0.0000    0.2782   12234.8607
  -10.9297     5.5507    -1.815    0.990547    0.000000    0.031290   -1.372287   -0.032209     0.0000    0.0000    0.2793   17325.6513
   -9.0462     6.1751    -1.984    0.946665    0.000000    0.032684   -1.045720   -0.032097     0.0000    0.0000    0.2807   23814.5994
   -7.1008     6.8200    -2.136    0.900328    0.000000    0.033431   -0.783166   -0.032388     0.0000    0.0000    0.2827   31869.2177
   -5.1069     7.4810    -2.253    0.850882    0.000000    0.033285   -0.572984   -0.033655     0.0000    0.0000    0.2863   41622.9894
   -3.0782     8.1535    -2.304    0.797477    0.000000    0.031766   -0.407298   -0.037317     0.0000    0.0000    0.2936   53161.3236
   -1.0284     8.8331    -2.215    0.737128    0.000000    0.027565   -0.282632   -0.047579     0.0000    0.0000    0.3115   66508.0824
    1.0284     8.8331    -2.215    0.737128    0.000000    0.027565   -0.282632   -0.047579     0.0000    0.0000    0.3115   66508.0824
    3.0782     8.1535    -2.304    0.797477    0.000000    0.031766   -0.407298   -0.037317     0.0000    0.0000    0.2936   53161.3236
    5.1069     7.4810    -2.253    0.850882    0.000000    0.033285   -0.572984   -0.033655     0.0000    0.0000    0.2863   41622.9894
    7.1008     6.8200    -2.136    0.900328    0.000000    0.033431   -0.783166   -0.032388     0.0000    0.0000    0.2827   31869.2177
    9.0462     6.1751    -1.984    0.946665    0.000000    0.032684   -1.045720   -0.032097     0.0000    0.0000    0.2807   23814.5994
   10.9297     5.5507    -1.815    0.990547    0.000000    0.031290   -1.372287   -0.032209     0.0000    0.0000    0.2793   17325.6513
   12.7386     4.9510    -1.637    1.032542    0.000000    0.029418   -1.778800   -0.032481     0.0000    0.0000    0.2782   12234.8607
   14.4605     4.3801    -1.454    1.073078    0.000000    0.027166   -2.286291   -0.032808     0.0000    0.0000    0.2773   8354.5474
   16.0836     3.8421    -1.271    1.112455    0.000000    0.024618   -2.922293   -0.033151     0.0000    0.0000    0.2766   5489.6636
   17.5969     3.3404    -1.091    1.150792    0.000000    0.021859   -3.722241   -0.033473     0.0000    0.0000    0.2758   3448.9277
   18.9899     2.8786    -0.920    1.187933    0.000000    0.019024   -4.730365   -0.033733     0.0000    0.0000    0.2752   2053.8161
   20.2532     2.4598    -0.769    1.223228    0.000000    0.016364   -5.998190   -0.033859     0.0000    0.0000    0.2745   1145.1426
   21.3782     2.0869    -0.658    1.255022    0.000000    0.014367   -7.575764   -0.033689     0.0000    0.0000    0.2736   587.1415
   22.3571     1.7623    -0.629    1.279522    0.000000    0.014005   -9.484386   -0.032852     0.0000    0.0000    0.2725   269.1639
   23.1833     1.4884    -0.759    1.288140    0.000000    0.017024   -11.644079   -0.030396     0.0000    0.0000    0.2705   105.2802
   23.8512     1.2670    -1.173    1.261940    0.000000    0.025804   -13.707727   -0.024089     0.0000    0.0000    0.2661   32.2468
   24.3561     1.0996    -1.977    1.163159    0.000000    0.040115   -14.788314   -0.010216     0.0000    0.0000    0.2561    6.4468
   24.6946     0.9874    -3.047    0.939920    0.000000    0.049999   -13.513873    0.006150     0.0000    0.0000    0.2413    0.4958
   24.8645     0.9311    -4.033    0.594042    0.000000    0.041874   -9.224111    0.028509     0.0000    0.0000    0.2022    0.0000


Main Wing Cp Coefficients
 Panel     CtrlPt.x        CtrlPt.y        CtrlPt.z       Nx      Ny       Nz        Area       Cp
Main WingCp Coefficients
Strip 1
  13       1.412e+01      -2.485e+01       9.107e-01           0.069          -0.023          -0.997       1.154e-03         -0.2381
  14       1.409e+01      -2.485e+01       9.091e-01           0.054          -0.026          -0.998       3.391e-03         -0.2644
  15       1.404e+01      -2.485e+01       9.062e-01           0.056          -0.026          -0.998       5.433e-03         -0.2961
  16       1.396e+01      -2.485e+01       9.018e-01           0.063          -0.024          -0.998       7.162e-03         -0.2962
  17       1.387e+01      -2.485e+01       8.953e-01           0.078          -0.020          -0.997       8.483e-03         -0.2765
  18       1.377e+01      -2.485e+01       8.873e-01           0.074          -0.021          -0.997       9.300e-03         -0.2449
  19       1.366e+01      -2.485e+01       8.804e-01           0.051          -0.029          -0.998       9.565e-03         -0.1983
  20       1.355e+01      -2.485e+01       8.771e-01           0.009          -0.045          -0.999       9.275e-03         -0.1292
  21       1.344e+01      -2.485e+01       8.780e-01          -0.029          -0.061          -0.998       8.464e-03         -0.0333
  22       1.335e+01      -2.485e+01       8.822e-01          -0.066          -0.078          -0.995       7.171e-03          0.1032
  23       1.328e+01      -2.485e+01       8.885e-01          -0.110          -0.100          -0.989       5.470e-03          0.3219
  24       1.322e+01      -2.485e+01       8.963e-01          -0.208          -0.149          -0.967       3.486e-03          0.6179
  25       1.320e+01      -2.485e+01       9.059e-01          -0.584          -0.337          -0.738       1.534e-03         -0.8665
  26       1.320e+01      -2.485e+01       9.180e-01          -0.667          -0.330           0.668       1.754e-03         -5.8014
  27       1.322e+01      -2.485e+01       9.314e-01          -0.310          -0.133           0.941       3.616e-03         -2.7690
  28       1.328e+01      -2.485e+01       9.442e-01          -0.190          -0.071           0.979       5.554e-03         -1.2918
  29       1.335e+01      -2.485e+01       9.557e-01          -0.124          -0.038           0.992       7.218e-03         -0.8802
  30       1.344e+01      -2.485e+01       9.643e-01          -0.068          -0.012           0.998       8.477e-03         -0.7225
  31       1.355e+01      -2.485e+01       9.684e-01          -0.012           0.011           1.000       9.266e-03         -0.6304
  32       1.366e+01      -2.485e+01       9.663e-01           0.049           0.035           0.998       9.551e-03         -0.5368
  33       1.377e+01      -2.485e+01       9.586e-01           0.091           0.049           0.995       9.304e-03         -0.4558
  34       1.387e+01      -2.485e+01       9.475e-01           0.121           0.058           0.991       8.514e-03         -0.4102
  35       1.396e+01      -2.485e+01       9.353e-01           0.144           0.064           0.987       7.222e-03         -0.3756
  36       1.404e+01      -2.485e+01       9.244e-01           0.151           0.066           0.986       5.488e-03         -0.3433
  37       1.409e+01      -2.485e+01       9.165e-01           0.152           0.066           0.986       3.427e-03         -0.2926
  38       1.412e+01      -2.485e+01       9.123e-01           0.166           0.069           0.984       1.168e-03         -0.2423
Strip 2
  39       1.408e+01      -2.468e+01       9.044e-01           0.069          -0.023          -0.997       3.662e-03         -0.0091
  40       1.405e+01      -2.468e+01       9.028e-01           0.054          -0.026          -0.998       1.076e-02         -0.0223
  41       1.400e+01      -2.468e+01       8.997e-01           0.056          -0.026          -0.998       1.724e-02         -0.0397
  42       1.392e+01      -2.468e+01       8.950e-01           0.063          -0.024          -0.998       2.273e-02         -0.0413
  43       1.382e+01      -2.468e+01       8.881e-01           0.078          -0.020          -0.997       2.693e-02         -0.0415
  44       1.371e+01      -2.468e+01       8.797e-01           0.074          -0.021          -0.997       2.952e-02         -0.0406
  45       1.360e+01      -2.468e+01       8.723e-01           0.051          -0.029          -0.998       3.036e-02         -0.0207
  46       1.348e+01      -2.468e+01       8.688e-01           0.009          -0.045          -0.999       2.944e-02          0.0418
  47       1.337e+01      -2.468e+01       8.698e-01          -0.029          -0.061          -0.998       2.687e-02          0.1559
  48       1.327e+01      -2.468e+01       8.742e-01          -0.066          -0.078          -0.995       2.276e-02          0.3231
  49       1.319e+01      -2.468e+01       8.809e-01          -0.110          -0.100          -0.989       1.737e-02          0.5395
  50       1.314e+01      -2.468e+01       8.892e-01          -0.208          -0.149          -0.967       1.107e-02          0.6262
  51       1.311e+01      -2.468e+01       8.993e-01          -0.584          -0.337          -0.739       4.873e-03         -2.0730
  52       1.311e+01      -2.468e+01       9.122e-01          -0.667          -0.330           0.668       5.564e-03         -8.0499
  53       1.314e+01      -2.468e+01       9.265e-01          -0.310          -0.133           0.941       1.147e-02         -3.7277
  54       1.319e+01      -2.468e+01       9.400e-01          -0.190          -0.071           0.979       1.763e-02         -1.8721
  55       1.327e+01      -2.468e+01       9.522e-01          -0.124          -0.038           0.992       2.291e-02         -1.2690
  56       1.337e+01      -2.468e+01       9.613e-01          -0.068          -0.012           0.998       2.691e-02         -0.9769
  57       1.348e+01      -2.468e+01       9.656e-01          -0.012           0.011           1.000       2.941e-02         -0.7969
  58       1.360e+01      -2.468e+01       9.634e-01           0.049           0.035           0.998       3.032e-02         -0.6391
  59       1.371e+01      -2.468e+01       9.552e-01           0.091           0.049           0.995       2.953e-02         -0.4944
  60       1.382e+01      -2.468e+01       9.435e-01           0.121           0.058           0.991       2.703e-02         -0.3783
  61       1.392e+01      -2.468e+01       9.306e-01           0.144           0.064           0.987       2.293e-02         -0.2705
  62       1.400e+01      -2.468e+01       9.190e-01           0.151           0.066           0.986       1.742e-02         -0.1700
  63       1.405e+01      -2.468e+01       9.106e-01           0.152           0.066           0.986       1.088e-02         -0.0671
  64       1.408e+01      -2.468e+01       9.061e-01           0.166           0.069           0.984       3.706e-03          0.0079
Strip 3
  65       1.401e+01      -2.434e+01       8.919e-01           0.069          -0.023          -0.997       6.765e-03          0.1542
  66       1.398e+01      -2.434e+01       8.901e-01           0.055          -0.026          -0.998       1.989e-02          0.1462
  67       1.392e+01      -2.434e+01       8.867e-01           0.056          -0.026          -0.998       3.186e-02          0.1339
  68       1.383e+01      -2.434e+01       8.815e-01           0.063          -0.024          -0.998       4.200e-02          0.1312
  69       1.373e+01      -2.434e+01       8.738e-01           0.078          -0.020          -0.997       4.974e-02          0.1247
  70       1.360e+01      -2.434e+01       8.644e-01           0.074          -0.021          -0.997       5.453e-02          0.1204
  71       1.347e+01      -2.434e+01       8.562e-01           0.051          -0.029          -0.998       5.609e-02          0.1418
  72       1.334e+01      -2.434e+01       8.523e-01           0.009          -0.045          -0.999       5.440e-02          0.2125
  73       1.322e+01      -2.434e+01       8.534e-01          -0.029          -0.061          -0.998       4.964e-02          0.3313
  74       1.311e+01      -2.434e+01       8.583e-01          -0.066          -0.078          -0.995       4.207e-02          0.4870
  75       1.302e+01      -2.434e+01       8.658e-01          -0.110          -0.100          -0.989       3.209e-02          0.6669
  76       1.296e+01      -2.434e+01       8.750e-01          -0.208          -0.149          -0.967       2.046e-02          0.6252
  77       1.293e+01      -2.434e+01       8.863e-01          -0.583          -0.337          -0.739       9.011e-03         -2.8356
  78       1.293e+01      -2.434e+01       9.006e-01          -0.668          -0.330           0.667       1.027e-02         -9.4955
  79       1.296e+01      -2.434e+01       9.165e-01          -0.310          -0.133           0.941       2.119e-02         -4.2584
  80       1.302e+01      -2.434e+01       9.316e-01          -0.190          -0.071           0.979       3.256e-02         -2.1423
  81       1.311e+01      -2.434e+01       9.451e-01          -0.124          -0.038           0.992       4.231e-02         -1.4738
  82       1.322e+01      -2.434e+01       9.554e-01          -0.068          -0.012           0.998       4.971e-02         -1.1419
  83       1.334e+01      -2.434e+01       9.601e-01          -0.012           0.011           1.000       5.434e-02         -0.9159
  84       1.347e+01      -2.434e+01       9.577e-01           0.049           0.035           0.998       5.602e-02         -0.7022
  85       1.360e+01      -2.434e+01       9.485e-01           0.091           0.049           0.995       5.457e-02         -0.4973
  86       1.373e+01      -2.434e+01       9.355e-01           0.121           0.058           0.991       4.995e-02         -0.3238
  87       1.383e+01      -2.434e+01       9.211e-01           0.144           0.064           0.987       4.237e-02         -0.1674
  88       1.392e+01      -2.434e+01       9.081e-01           0.151           0.066           0.986       3.219e-02         -0.0318
  89       1.398e+01      -2.434e+01       8.988e-01           0.152           0.066           0.986       2.010e-02          0.0931
  90       1.401e+01      -2.434e+01       8.938e-01           0.166           0.069           0.984       6.849e-03          0.1769
Strip 4
  91       1.391e+01      -2.384e+01       8.734e-01           0.069          -0.023          -0.997       1.084e-02          0.1856
  92       1.388e+01      -2.384e+01       8.712e-01           0.055          -0.026          -0.998       3.186e-02          0.1822
  93       1.380e+01      -2.384e+01       8.674e-01           0.056          -0.026          -0.998       5.104e-02          0.1766
  94       1.370e+01      -2.384e+01       8.613e-01           0.063          -0.024          -0.998       6.728e-02          0.1800
  95       1.358e+01      -2.384e+01       8.524e-01           0.078          -0.020          -0.997       7.969e-02          0.1788
  96       1.344e+01      -2.384e+01       8.416e-01           0.074          -0.021          -0.997       8.736e-02          0.1791
  97       1.329e+01      -2.384e+01       8.322e-01           0.051          -0.029          -0.998       8.985e-02          0.2035
  98       1.314e+01      -2.384e+01       8.276e-01           0.009          -0.045          -0.999       8.715e-02          0.2736
  99       1.300e+01      -2.384e+01       8.289e-01          -0.029          -0.061          -0.998       7.954e-02          0.3871
 100       1.287e+01      -2.384e+01       8.346e-01          -0.066          -0.078          -0.995       6.740e-02          0.5335
 101       1.277e+01      -2.384e+01       8.432e-01          -0.110          -0.099          -0.989       5.143e-02          0.6994
 102       1.270e+01      -2.384e+01       8.539e-01          -0.208          -0.149          -0.967       3.279e-02          0.6080
 103       1.266e+01      -2.384e+01       8.668e-01          -0.583          -0.336          -0.740       1.445e-02         -3.1545
 104       1.266e+01      -2.383e+01       8.833e-01          -0.668          -0.330           0.666       1.644e-02        -10.0910
 105       1.270e+01      -2.383e+01       9.017e-01          -0.310          -0.133           0.941       3.392e-02         -4.4767
 106       1.277e+01      -2.383e+01       9.191e-01          -0.190          -0.071           0.979       5.213e-02         -2.2526
 107       1.287e+01      -2.383e+01       9.347e-01          -0.124          -0.038           0.992       6.777e-02         -1.5601
 108       1.300e+01      -2.383e+01       9.464e-01          -0.068          -0.012           0.998       7.962e-02         -1.2190
 109       1.314e+01      -2.383e+01       9.519e-01          -0.012           0.011           1.000       8.706e-02         -0.9844
 110       1.329e+01      -2.383e+01       9.491e-01           0.049           0.035           0.998       8.976e-02         -0.7578
 111       1.344e+01      -2.383e+01       9.386e-01           0.091           0.049           0.995       8.744e-02         -0.5365
 112       1.358e+01      -2.383e+01       9.235e-01           0.121           0.058           0.991       8.003e-02         -0.3458
 113       1.370e+01      -2.383e+01       9.070e-01           0.144           0.064           0.988       6.788e-02         -0.1737
 114       1.380e+01      -2.383e+01       8.920e-01           0.151           0.066           0.986       5.158e-02         -0.0251
 115       1.388e+01      -2.383e+01       8.812e-01           0.152           0.066           0.986       3.221e-02          0.1102
 116       1.391e+01      -2.384e+01       8.755e-01           0.166           0.069           0.984       1.097e-02          0.1992
Strip 5
 117       1.378e+01      -2.317e+01       8.488e-01           0.069          -0.023          -0.997       1.622e-02          0.1953
 118       1.373e+01      -2.317e+01       8.463e-01           0.055          -0.026          -0.998       4.767e-02          0.1937
 119       1.365e+01      -2.317e+01       8.417e-01           0.056          -0.026          -0.998       7.638e-02          0.1912
 120       1.353e+01      -2.317e+01       8.347e-01           0.063          -0.024          -0.998       1.007e-01          0.1971
 121       1.339e+01      -2.317e+01       8.242e-01           0.078          -0.020          -0.997       1.192e-01          0.1979
 122       1.322e+01      -2.317e+01       8.115e-01           0.074          -0.021          -0.997       1.307e-01          0.1993
 123       1.304e+01      -2.317e+01       8.004e-01           0.051          -0.029          -0.998       1.345e-01          0.2234
 124       1.287e+01      -2.317e+01       7.950e-01           0.009          -0.045          -0.999       1.304e-01          0.2918
 125       1.270e+01      -2.317e+01       7.966e-01          -0.029          -0.061          -0.998       1.190e-01          0.4022
 126       1.255e+01      -2.317e+01       8.033e-01          -0.066          -0.078          -0.995       1.009e-01          0.5449
 127       1.244e+01      -2.317e+01       8.134e-01          -0.110          -0.099          -0.989       7.698e-02          0.7073
 128       1.235e+01      -2.317e+01       8.259e-01          -0.208          -0.148          -0.967       4.909e-02          0.6122
 129       1.231e+01      -2.317e+01       8.411e-01          -0.582          -0.336          -0.740       2.165e-02         -3.1497
 130       1.231e+01      -2.317e+01       8.605e-01          -0.669          -0.331           0.665       2.457e-02        -10.1267
 131       1.235e+01      -2.317e+01       8.820e-01          -0.311          -0.133           0.941       5.073e-02         -4.4938
 132       1.244e+01      -2.317e+01       9.025e-01          -0.190          -0.071           0.979       7.799e-02         -2.2656
 133       1.255e+01      -2.317e+01       9.208e-01          -0.124          -0.038           0.992       1.014e-01         -1.5754
 134       1.270e+01      -2.317e+01       9.346e-01          -0.068          -0.012           0.998       1.191e-01         -1.2367
 135       1.287e+01      -2.317e+01       9.411e-01          -0.012           0.011           1.000       1.303e-01         -1.0032
 136       1.304e+01      -2.317e+01       9.377e-01           0.049           0.035           0.998       1.343e-01         -0.7755
 137       1.322e+01      -2.317e+01       9.254e-01           0.091           0.049           0.995       1.309e-01         -0.5510
 138       1.339e+01      -2.317e+01       9.077e-01           0.121           0.058           0.991       1.198e-01         -0.3560
 139       1.353e+01      -2.317e+01       8.883e-01           0.144           0.064           0.988       1.016e-01         -0.1792
 140       1.365e+01      -2.317e+01       8.707e-01           0.151           0.066           0.986       7.721e-02         -0.0263
 141       1.373e+01      -2.317e+01       8.580e-01           0.152           0.066           0.986       4.821e-02          0.1128
 142       1.378e+01      -2.317e+01       8.513e-01           0.166           0.069           0.984       1.643e-02          0.2038
Strip 6
 143       1.361e+01      -2.234e+01       8.184e-01           0.069          -0.023          -0.997       2.320e-02          0.1989
 144       1.356e+01      -2.234e+01       8.154e-01           0.055          -0.026          -0.998       6.820e-02          0.1979
 145       1.346e+01      -2.234e+01       8.100e-01           0.056          -0.026          -0.998       1.093e-01          0.1960
 146       1.332e+01      -2.234e+01       8.016e-01           0.063          -0.024          -0.998       1.440e-01          0.2023
 147       1.315e+01      -2.234e+01       7.893e-01           0.078          -0.020          -0.997       1.706e-01          0.2031
 148       1.295e+01      -2.234e+01       7.742e-01           0.074          -0.021          -0.997       1.870e-01          0.2038
 149       1.274e+01      -2.234e+01       7.611e-01           0.051          -0.029          -0.998       1.923e-01          0.2267
 150       1.253e+01      -2.234e+01       7.547e-01           0.009          -0.045          -0.999       1.866e-01          0.2932
 151       1.234e+01      -2.234e+01       7.565e-01          -0.029          -0.061          -0.998       1.703e-01          0.4014
 152       1.216e+01      -2.234e+01       7.645e-01          -0.066          -0.078          -0.995       1.443e-01          0.5424
 153       1.202e+01      -2.234e+01       7.764e-01          -0.110          -0.099          -0.989       1.101e-01          0.7056
 154       1.192e+01      -2.234e+01       7.912e-01          -0.208          -0.148          -0.967       7.026e-02          0.6304
 155       1.187e+01      -2.234e+01       8.093e-01          -0.581          -0.336          -0.741       3.100e-02         -2.9718
 156       1.187e+01      -2.234e+01       8.323e-01          -0.670          -0.331           0.665       3.512e-02         -9.8611
 157       1.192e+01      -2.234e+01       8.577e-01          -0.311          -0.134           0.941       7.253e-02         -4.4032
 158       1.202e+01      -2.234e+01       8.820e-01          -0.190          -0.071           0.979       1.115e-01         -2.2286
 159       1.216e+01      -2.234e+01       9.037e-01          -0.124          -0.038           0.992       1.450e-01         -1.5554
 160       1.234e+01      -2.234e+01       9.200e-01          -0.068          -0.012           0.998       1.704e-01         -1.2254
 161       1.253e+01      -2.234e+01       9.277e-01          -0.012           0.011           1.000       1.864e-01         -0.9972
 162       1.274e+01      -2.234e+01       9.237e-01           0.049           0.035           0.998       1.922e-01         -0.7728
 163       1.295e+01      -2.234e+01       9.091e-01           0.091           0.049           0.995       1.873e-01         -0.5502
 164       1.315e+01      -2.234e+01       8.882e-01           0.121           0.058           0.991       1.714e-01         -0.3557
 165       1.332e+01      -2.234e+01       8.651e-01           0.144           0.064           0.988       1.454e-01         -0.1788
 166       1.346e+01      -2.234e+01       8.443e-01           0.151           0.066           0.986       1.105e-01         -0.0255
 167       1.356e+01      -2.234e+01       8.293e-01           0.152           0.066           0.986       6.897e-02          0.1143
 168       1.361e+01      -2.234e+01       8.214e-01           0.166           0.069           0.984       2.350e-02          0.2057
Strip 7
 169       1.341e+01      -2.136e+01       7.823e-01           0.069          -0.023          -0.997       3.202e-02          0.2005
 170       1.335e+01      -2.136e+01       7.788e-01           0.055          -0.026          -0.998       9.412e-02          0.1993
 171       1.324e+01      -2.136e+01       7.724e-01           0.056          -0.026          -0.998       1.508e-01          0.1970
 172       1.307e+01      -2.136e+01       7.625e-01           0.063          -0.024          -0.998       1.988e-01          0.2028
 173       1.287e+01      -2.136e+01       7.479e-01           0.078          -0.020          -0.997       2.354e-01          0.2027
 174       1.263e+01      -2.136e+01       7.300e-01           0.074          -0.021          -0.997       2.580e-01          0.2020
 175       1.239e+01      -2.136e+01       7.145e-01           0.051          -0.029          -0.998       2.654e-01          0.2230
 176       1.214e+01      -2.136e+01       7.070e-01           0.009          -0.045          -0.999       2.575e-01          0.2874
 177       1.190e+01      -2.136e+01       7.091e-01          -0.029          -0.061          -0.998       2.351e-01          0.3938
 178       1.170e+01      -2.136e+01       7.185e-01          -0.066          -0.078          -0.995       1.992e-01          0.5337
 179       1.153e+01      -2.136e+01       7.327e-01          -0.110          -0.099          -0.989       1.520e-01          0.6992
 180       1.142e+01      -2.136e+01       7.502e-01          -0.208          -0.148          -0.967       9.700e-02          0.6541
 181       1.136e+01      -2.136e+01       7.716e-01          -0.581          -0.336          -0.741       4.282e-02         -2.7165
 182       1.136e+01      -2.136e+01       7.988e-01          -0.670          -0.331           0.664       4.844e-02         -9.4517
 183       1.142e+01      -2.136e+01       8.290e-01          -0.311          -0.134           0.941       1.001e-01         -4.2610
 184       1.153e+01      -2.136e+01       8.576e-01          -0.190          -0.071           0.979       1.539e-01         -2.1675
 185       1.170e+01      -2.136e+01       8.834e-01          -0.124          -0.038           0.992       2.001e-01         -1.5188
 186       1.190e+01      -2.136e+01       9.027e-01          -0.068          -0.012           0.998       2.352e-01         -1.2007
 187       1.214e+01      -2.136e+01       9.118e-01          -0.012           0.011           1.000       2.572e-01         -0.9800
 188       1.239e+01      -2.136e+01       9.071e-01           0.049           0.035           0.998       2.653e-01         -0.7610
 189       1.263e+01      -2.136e+01       8.898e-01           0.091           0.049           0.995       2.585e-01         -0.5423
 190       1.287e+01      -2.136e+01       8.650e-01           0.121           0.058           0.991       2.366e-01         -0.3504
 191       1.307e+01      -2.136e+01       8.377e-01           0.144           0.064           0.988       2.007e-01         -0.1752
 192       1.324e+01      -2.136e+01       8.131e-01           0.151           0.066           0.986       1.525e-01         -0.0230
 193       1.335e+01      -2.136e+01       7.953e-01           0.152           0.066           0.986       9.520e-02          0.1160
 194       1.341e+01      -2.136e+01       7.859e-01           0.166           0.069           0.984       3.244e-02          0.2070
Strip 8
 195       1.319e+01      -2.024e+01       7.409e-01           0.069          -0.023          -0.997       4.284e-02          0.2014
 196       1.312e+01      -2.024e+01       7.368e-01           0.055          -0.026          -0.998       1.259e-01          0.1996
 197       1.298e+01      -2.024e+01       7.292e-01           0.056          -0.026          -0.998       2.017e-01          0.1964
 198       1.278e+01      -2.024e+01       7.176e-01           0.063          -0.024          -0.998       2.659e-01          0.2012
 199       1.254e+01      -2.024e+01       7.003e-01           0.078          -0.020          -0.997       3.149e-01          0.1998
 200       1.227e+01      -2.024e+01       6.793e-01           0.074          -0.021          -0.997       3.453e-01          0.1974
 201       1.197e+01      -2.024e+01       6.610e-01           0.051          -0.029          -0.998       3.551e-01          0.2163
 202       1.168e+01      -2.024e+01       6.521e-01           0.009          -0.045          -0.999       3.445e-01          0.2785
 203       1.141e+01      -2.024e+01       6.546e-01          -0.029          -0.061          -0.998       3.145e-01          0.3830
 204       1.117e+01      -2.024e+01       6.657e-01          -0.065          -0.078          -0.995       2.666e-01          0.5219
 205       1.097e+01      -2.024e+01       6.824e-01          -0.110          -0.099          -0.989       2.035e-01          0.6900
 206       1.083e+01      -2.024e+01       7.030e-01          -0.208          -0.148          -0.967       1.298e-01          0.6786
 207       1.076e+01      -2.024e+01       7.282e-01          -0.581          -0.335          -0.742       5.732e-02         -2.4335
 208       1.076e+01      -2.024e+01       7.603e-01          -0.671          -0.332           0.663       6.477e-02         -8.9795
 209       1.083e+01      -2.024e+01       7.959e-01          -0.311          -0.134           0.941       1.338e-01         -4.0950
 210       1.097e+01      -2.024e+01       8.297e-01          -0.191          -0.071           0.979       2.058e-01         -2.0955
 211       1.117e+01      -2.024e+01       8.600e-01          -0.124          -0.038           0.992       2.677e-01         -1.4745
 212       1.141e+01      -2.024e+01       8.829e-01          -0.068          -0.012           0.998       3.147e-01         -1.1698
 213       1.168e+01      -2.024e+01       8.935e-01          -0.012           0.011           1.000       3.442e-01         -0.9578
 214       1.197e+01      -2.024e+01       8.880e-01           0.049           0.035           0.998       3.550e-01         -0.7451
 215       1.227e+01      -2.024e+01       8.676e-01           0.091           0.049           0.995       3.459e-01         -0.5312
 216       1.254e+01      -2.024e+01       8.384e-01           0.121           0.058           0.991       3.166e-01         -0.3428
 217       1.278e+01      -2.024e+01       8.062e-01           0.144           0.064           0.988       2.685e-01         -0.1701
 218       1.298e+01      -2.024e+01       7.772e-01           0.151           0.066           0.986       2.040e-01         -0.0197
 219       1.312e+01      -2.024e+01       7.562e-01           0.152           0.066           0.986       1.274e-01          0.1179
 220       1.319e+01      -2.024e+01       7.452e-01           0.166           0.069           0.984       4.341e-02          0.2081
Strip 9
 221       1.293e+01      -1.898e+01       6.944e-01           0.069          -0.023          -0.997       5.576e-02          0.2018
 222       1.285e+01      -1.898e+01       6.896e-01           0.055          -0.026          -0.998       1.639e-01          0.1994
 223       1.269e+01      -1.898e+01       6.808e-01           0.056          -0.026          -0.998       2.626e-01          0.1951
 224       1.246e+01      -1.898e+01       6.671e-01           0.063          -0.024          -0.998       3.461e-01          0.1987
 225       1.218e+01      -1.898e+01       6.469e-01           0.078          -0.020          -0.997       4.099e-01          0.1959
 226       1.186e+01      -1.898e+01       6.223e-01           0.074          -0.021          -0.997       4.494e-01          0.1916
 227       1.151e+01      -1.898e+01       6.008e-01           0.051          -0.029          -0.998       4.622e-01          0.2081
 228       1.117e+01      -1.898e+01       5.904e-01           0.009          -0.045          -0.999       4.484e-01          0.2680
 229       1.085e+01      -1.898e+01       5.934e-01          -0.029          -0.061          -0.998       4.094e-01          0.3706
 230       1.057e+01      -1.898e+01       6.064e-01          -0.065          -0.078          -0.995       3.470e-01          0.5083
 231       1.034e+01      -1.898e+01       6.259e-01          -0.110          -0.099          -0.989       2.649e-01          0.6790
 232       1.018e+01      -1.898e+01       6.501e-01          -0.208          -0.148          -0.967       1.690e-01          0.7013
 233       1.010e+01      -1.898e+01       6.796e-01          -0.580          -0.335          -0.742       7.465e-02         -2.1458
 234       1.010e+01      -1.898e+01       7.171e-01          -0.671          -0.332           0.663       8.427e-02         -8.4835
 235       1.018e+01      -1.898e+01       7.587e-01          -0.311          -0.134           0.941       1.741e-01         -3.9188
 236       1.034e+01      -1.898e+01       7.983e-01          -0.191          -0.071           0.979       2.679e-01         -2.0184
 237       1.057e+01      -1.898e+01       8.338e-01          -0.124          -0.038           0.992       3.484e-01         -1.4267
 238       1.085e+01      -1.898e+01       8.605e-01          -0.068          -0.012           0.998       4.095e-01         -1.1362
 239       1.117e+01      -1.898e+01       8.730e-01          -0.012           0.011           1.000       4.480e-01         -0.9332
 240       1.151e+01      -1.898e+01       8.666e-01           0.049           0.035           0.998       4.620e-01         -0.7274
 241       1.186e+01      -1.898e+01       8.427e-01           0.091           0.049           0.995       4.502e-01         -0.5186
 242       1.218e+01      -1.898e+01       8.085e-01           0.121           0.058           0.991       4.121e-01         -0.3341
 243       1.246e+01      -1.898e+01       7.708e-01           0.144           0.064           0.988       3.495e-01         -0.1643
 244       1.269e+01      -1.898e+01       7.369e-01           0.151           0.066           0.986       2.656e-01         -0.0160
 245       1.285e+01      -1.898e+01       7.124e-01           0.152           0.066           0.986       1.658e-01          0.1199
 246       1.293e+01      -1.898e+01       6.994e-01           0.166           0.069           0.984       5.651e-02          0.2092
Strip 10
 247       1.265e+01      -1.759e+01       6.431e-01           0.069          -0.023          -0.997       7.079e-02          0.2022
 248       1.256e+01      -1.759e+01       6.376e-01           0.055          -0.026          -0.998       2.081e-01          0.1989
 249       1.237e+01      -1.759e+01       6.273e-01           0.056          -0.026          -0.998       3.334e-01          0.1934
 250       1.211e+01      -1.759e+01       6.114e-01           0.063          -0.024          -0.998       4.394e-01          0.1958
 251       1.178e+01      -1.759e+01       5.880e-01           0.078          -0.020          -0.997       5.204e-01          0.1914
 252       1.140e+01      -1.759e+01       5.594e-01           0.074          -0.021          -0.997       5.705e-01          0.1851
 253       1.101e+01      -1.759e+01       5.345e-01           0.051          -0.029          -0.998       5.868e-01          0.1991
 254       1.061e+01      -1.759e+01       5.225e-01           0.009          -0.045          -0.999       5.693e-01          0.2566
 255       1.024e+01      -1.759e+01       5.259e-01          -0.029          -0.061          -0.998       5.198e-01          0.3571
 256       9.906e+00      -1.759e+01       5.410e-01          -0.065          -0.078          -0.995       4.406e-01          0.4936
 257       9.641e+00      -1.759e+01       5.636e-01          -0.110          -0.099          -0.989       3.363e-01          0.6664
 258       9.456e+00      -1.759e+01       5.917e-01          -0.208          -0.148          -0.967       2.146e-01          0.7214
 259       9.360e+00      -1.759e+01       6.259e-01          -0.580          -0.335          -0.742       9.482e-02         -1.8630
 260       9.360e+00      -1.758e+01       6.695e-01          -0.671          -0.332           0.663       1.069e-01         -7.9811
 261       9.456e+00      -1.758e+01       7.178e-01          -0.311          -0.134           0.941       2.210e-01         -3.7387
 262       9.641e+00      -1.758e+01       7.637e-01          -0.191          -0.071           0.979       3.400e-01         -1.9391
 263       9.906e+00      -1.758e+01       8.049e-01          -0.124          -0.038           0.991       4.423e-01         -1.3772
 264       1.024e+01      -1.758e+01       8.359e-01          -0.068          -0.012           0.998       5.199e-01         -1.1012
 265       1.061e+01      -1.758e+01       8.504e-01          -0.012           0.011           1.000       5.687e-01         -0.9074
 266       1.101e+01      -1.758e+01       8.429e-01           0.049           0.035           0.998       5.866e-01         -0.7086
 267       1.140e+01      -1.758e+01       8.152e-01           0.091           0.049           0.995       5.716e-01         -0.5053
 268       1.178e+01      -1.758e+01       7.755e-01           0.121           0.058           0.991       5.232e-01         -0.3248
 269       1.211e+01      -1.758e+01       7.318e-01           0.144           0.064           0.988       4.438e-01         -0.1581
 270       1.237e+01      -1.758e+01       6.924e-01           0.151           0.066           0.986       3.372e-01         -0.0121
 271       1.256e+01      -1.758e+01       6.640e-01           0.152           0.066           0.986       2.105e-01          0.1220
 272       1.265e+01      -1.759e+01       6.489e-01           0.166           0.069           0.984       7.174e-02          0.2103
Strip 11
 273       1.235e+01      -1.607e+01       5.874e-01           0.069          -0.023          -0.997       8.787e-02          0.2024
 274       1.224e+01      -1.607e+01       5.810e-01           0.055          -0.026          -0.998       2.583e-01          0.1984
 275       1.202e+01      -1.607e+01       5.692e-01           0.056          -0.026          -0.998       4.138e-01          0.1916
 276       1.172e+01      -1.607e+01       5.510e-01           0.063          -0.024          -0.998       5.454e-01          0.1926
 277       1.134e+01      -1.607e+01       5.240e-01           0.078          -0.020          -0.997       6.459e-01          0.1866
 278       1.091e+01      -1.607e+01       4.911e-01           0.074          -0.021          -0.997       7.081e-01          0.1782
 279       1.045e+01      -1.607e+01       4.625e-01           0.051          -0.029          -0.998       7.284e-01          0.1897
 280       9.998e+00      -1.607e+01       4.487e-01           0.009          -0.045          -0.999       7.067e-01          0.2446
 281       9.568e+00      -1.607e+01       4.526e-01          -0.029          -0.061          -0.998       6.452e-01          0.3429
 282       9.189e+00      -1.607e+01       4.699e-01          -0.065          -0.078          -0.995       5.469e-01          0.4778
 283       8.884e+00      -1.607e+01       4.960e-01          -0.110          -0.099          -0.989       4.175e-01          0.6524
 284       8.671e+00      -1.607e+01       5.283e-01          -0.208          -0.148          -0.967       2.665e-01          0.7383
 285       8.561e+00      -1.607e+01       5.676e-01          -0.580          -0.335          -0.743       1.177e-01         -1.5890
 286       8.561e+00      -1.607e+01       6.177e-01          -0.671          -0.332           0.662       1.327e-01         -7.4790
 287       8.671e+00      -1.607e+01       6.733e-01          -0.311          -0.134           0.941       2.743e-01         -3.5568
 288       8.884e+00      -1.607e+01       7.261e-01          -0.191          -0.071           0.979       4.220e-01         -1.8587
 289       9.189e+00      -1.607e+01       7.735e-01          -0.124          -0.038           0.991       5.490e-01         -1.3268
 290       9.568e+00      -1.607e+01       8.092e-01          -0.068          -0.012           0.998       6.453e-01         -1.0655
 291       9.998e+00      -1.607e+01       8.258e-01          -0.012           0.011           1.000       7.059e-01         -0.8811
 292       1.045e+01      -1.607e+01       8.172e-01           0.049           0.035           0.998       7.282e-01         -0.6893
 293       1.091e+01      -1.607e+01       7.853e-01           0.091           0.049           0.995       7.095e-01         -0.4916
 294       1.134e+01      -1.607e+01       7.397e-01           0.121           0.058           0.991       6.494e-01         -0.3153
 295       1.172e+01      -1.607e+01       6.894e-01           0.144           0.064           0.988       5.509e-01         -0.1517
 296       1.202e+01      -1.607e+01       6.441e-01           0.151           0.066           0.986       4.186e-01         -0.0081
 297       1.224e+01      -1.607e+01       6.114e-01           0.152           0.066           0.986       2.614e-01          0.1241
 298       1.235e+01      -1.607e+01       5.941e-01           0.166           0.069           0.984       8.906e-02          0.2113
Strip 12
 299       1.202e+01      -1.445e+01       5.277e-01           0.069          -0.023          -0.997       1.068e-01          0.2026
 300       1.189e+01      -1.445e+01       5.204e-01           0.055          -0.026          -0.998       3.140e-01          0.1977
 301       1.165e+01      -1.445e+01       5.069e-01           0.056          -0.026          -0.998       5.031e-01          0.1896
 302       1.130e+01      -1.445e+01       4.861e-01           0.063          -0.024          -0.998       6.632e-01          0.1893
 303       1.087e+01      -1.445e+01       4.553e-01           0.078          -0.020          -0.997       7.854e-01          0.1816
 304       1.038e+01      -1.445e+01       4.179e-01           0.074          -0.021          -0.997       8.609e-01          0.1710
 305       9.862e+00      -1.445e+01       3.853e-01           0.051          -0.029          -0.998       8.856e-01          0.1799
 306       9.342e+00      -1.445e+01       3.695e-01           0.009          -0.045          -0.999       8.592e-01          0.2321
 307       8.852e+00      -1.445e+01       3.740e-01          -0.029          -0.061          -0.998       7.845e-01          0.3280
 308       8.420e+00      -1.445e+01       3.937e-01          -0.065          -0.078          -0.995       6.650e-01          0.4612
 309       8.073e+00      -1.445e+01       4.234e-01          -0.110          -0.099          -0.989       5.077e-01          0.6369
 310       7.829e+00      -1.445e+01       4.602e-01          -0.208          -0.148          -0.967       3.240e-01          0.7519
 311       7.704e+00      -1.445e+01       5.051e-01          -0.580          -0.335          -0.743       1.432e-01         -1.3243
 312       7.704e+00      -1.445e+01       5.622e-01          -0.672          -0.332           0.662       1.613e-01         -6.9788
 313       7.829e+00      -1.445e+01       6.256e-01          -0.311          -0.134           0.941       3.334e-01         -3.3738
 314       8.073e+00      -1.445e+01       6.858e-01          -0.191          -0.071           0.979       5.131e-01         -1.7771
 315       8.420e+00      -1.445e+01       7.398e-01          -0.124          -0.038           0.991       6.674e-01         -1.2756
 316       8.852e+00      -1.445e+01       7.805e-01          -0.068          -0.012           0.998       7.846e-01         -1.0291
 317       9.342e+00      -1.445e+01       7.995e-01          -0.012           0.011           1.000       8.583e-01         -0.8541
 318       9.862e+00      -1.445e+01       7.897e-01           0.049           0.035           0.998       8.854e-01         -0.6696
 319       1.038e+01      -1.445e+01       7.533e-01           0.091           0.049           0.995       8.627e-01         -0.4775
 320       1.087e+01      -1.445e+01       7.012e-01           0.121           0.058           0.991       7.897e-01         -0.3055
 321       1.130e+01      -1.445e+01       6.440e-01           0.144           0.064           0.988       6.699e-01         -0.1452
 322       1.165e+01      -1.445e+01       5.923e-01           0.151           0.066           0.986       5.090e-01         -0.0041
 323       1.189e+01      -1.445e+01       5.550e-01           0.152           0.066           0.986       3.178e-01          0.1261
 324       1.202e+01      -1.445e+01       5.352e-01           0.165           0.069           0.984       1.083e-01          0.2123
Strip 13
 325       1.167e+01      -1.273e+01       4.643e-01           0.069          -0.023          -0.997       1.275e-01          0.2027
 326       1.153e+01      -1.273e+01       4.560e-01           0.055          -0.026          -0.998       3.747e-01          0.1970
 327       1.126e+01      -1.273e+01       4.408e-01           0.056          -0.026          -0.998       6.003e-01          0.1876
 328       1.086e+01      -1.273e+01       4.173e-01           0.063          -0.024          -0.998       7.912e-01          0.1859
 329       1.038e+01      -1.273e+01       3.825e-01           0.078          -0.020          -0.997       9.370e-01          0.1765
 330       9.822e+00      -1.273e+01       3.402e-01           0.074          -0.021          -0.997       1.027e+00          0.1636
 331       9.234e+00      -1.273e+01       3.033e-01           0.051          -0.029          -0.998       1.057e+00          0.1697
 332       8.646e+00      -1.273e+01       2.855e-01           0.009          -0.045          -0.999       1.025e+00          0.2191
 333       8.092e+00      -1.273e+01       2.905e-01          -0.029          -0.061          -0.998       9.360e-01          0.3124
 334       7.604e+00      -1.273e+01       3.129e-01          -0.065          -0.078          -0.995       7.935e-01          0.4435
 335       7.211e+00      -1.273e+01       3.465e-01          -0.110          -0.099          -0.989       6.057e-01          0.6198
 336       6.936e+00      -1.273e+01       3.881e-01          -0.208          -0.148          -0.967       3.866e-01          0.7619
 337       6.794e+00      -1.273e+01       4.388e-01          -0.580          -0.335          -0.743       1.709e-01         -1.0684
 338       6.794e+00      -1.273e+01       5.034e-01          -0.672          -0.332           0.662       1.924e-01         -6.4785
 339       6.936e+00      -1.273e+01       5.750e-01          -0.311          -0.134           0.941       3.977e-01         -3.1885
 340       7.211e+00      -1.273e+01       6.430e-01          -0.191          -0.071           0.979       6.121e-01         -1.6941
 341       7.604e+00      -1.273e+01       7.041e-01          -0.124          -0.038           0.991       7.963e-01         -1.2233
 342       8.092e+00      -1.273e+01       7.501e-01          -0.068          -0.012           0.998       9.361e-01         -0.9919
 343       8.646e+00      -1.273e+01       7.715e-01          -0.012           0.011           1.000       1.024e+00         -0.8265
 344       9.234e+00      -1.273e+01       7.604e-01           0.049           0.035           0.998       1.056e+00         -0.6494
 345       9.822e+00      -1.273e+01       7.193e-01           0.091           0.049           0.995       1.029e+00         -0.4632
 346       1.038e+01      -1.273e+01       6.605e-01           0.121           0.058           0.991       9.422e-01         -0.2955
 347       1.086e+01      -1.273e+01       5.957e-01           0.144           0.064           0.988       7.993e-01         -0.1387
 348       1.126e+01      -1.273e+01       5.373e-01           0.151           0.066           0.986       6.073e-01         -0.0001
 349       1.153e+01      -1.273e+01       4.952e-01           0.152           0.066           0.986       3.792e-01          0.1282
 350       1.167e+01      -1.273e+01       4.728e-01           0.165           0.069           0.984       1.292e-01          0.2132
Strip 14
 351       1.131e+01      -1.092e+01       3.977e-01           0.069          -0.023          -0.997       1.494e-01          0.2027
 352       1.115e+01      -1.092e+01       3.885e-01           0.055          -0.026          -0.998       4.393e-01          0.1962
 353       1.084e+01      -1.092e+01       3.714e-01           0.056          -0.026          -0.998       7.038e-01          0.1854
 354       1.040e+01      -1.092e+01       3.451e-01           0.063          -0.024          -0.998       9.277e-01          0.1823
 355       9.854e+00      -1.092e+01       3.060e-01           0.078          -0.020          -0.997       1.099e+00          0.1712
 356       9.233e+00      -1.092e+01       2.586e-01           0.074          -0.021          -0.997       1.204e+00          0.1559
 357       8.574e+00      -1.092e+01       2.173e-01           0.051          -0.029          -0.998       1.239e+00          0.1591
 358       7.915e+00      -1.092e+01       1.972e-01           0.009          -0.045          -0.999       1.202e+00          0.2055
 359       7.294e+00      -1.092e+01       2.029e-01          -0.029          -0.061          -0.998       1.097e+00          0.2960
 360       6.747e+00      -1.092e+01       2.280e-01          -0.065          -0.078          -0.995       9.303e-01          0.4247
 361       6.307e+00      -1.092e+01       2.656e-01          -0.110          -0.099          -0.989       7.102e-01          0.6007
 362       5.998e+00      -1.092e+01       3.122e-01          -0.208          -0.148          -0.967       4.533e-01          0.7681
 363       5.839e+00      -1.092e+01       3.691e-01          -0.579          -0.335          -0.743       2.004e-01         -0.8198
 364       5.839e+00      -1.092e+01       4.415e-01          -0.672          -0.332           0.662       2.255e-01         -5.9742
 365       5.998e+00      -1.092e+01       5.218e-01          -0.311          -0.134           0.941       4.663e-01         -2.9993
 366       6.307e+00      -1.092e+01       5.981e-01          -0.191          -0.071           0.979       7.176e-01         -1.6088
 367       6.747e+00      -1.092e+01       6.665e-01          -0.124          -0.038           0.991       9.336e-01         -1.1695
 368       7.294e+00      -1.092e+01       7.181e-01          -0.068          -0.012           0.998       1.098e+00         -0.9536
 369       7.915e+00      -1.092e+01       7.421e-01          -0.012           0.011           1.000       1.201e+00         -0.7983
 370       8.574e+00      -1.092e+01       7.297e-01           0.049           0.035           0.998       1.239e+00         -0.6287
 371       9.233e+00      -1.092e+01       6.836e-01           0.091           0.049           0.995       1.207e+00         -0.4486
 372       9.854e+00      -1.092e+01       6.177e-01           0.121           0.058           0.991       1.105e+00         -0.2854
 373       1.040e+01      -1.092e+01       5.451e-01           0.144           0.064           0.988       9.371e-01         -0.1320
 374       1.084e+01      -1.092e+01       4.796e-01           0.151           0.066           0.986       7.121e-01          0.0039
 375       1.115e+01      -1.092e+01       4.323e-01           0.152           0.066           0.986       4.446e-01          0.1301
 376       1.131e+01      -1.092e+01       4.073e-01           0.165           0.069           0.984       1.515e-01          0.2140
Strip 15
 377       1.093e+01      -9.040e+00       3.284e-01           0.069          -0.023          -0.997       1.724e-01          0.2028
 378       1.075e+01      -9.040e+00       3.181e-01           0.055          -0.026          -0.998       5.068e-01          0.1954
 379       1.041e+01      -9.040e+00       2.991e-01           0.056          -0.026          -0.998       8.119e-01          0.1832
 380       9.919e+00      -9.040e+00       2.698e-01           0.063          -0.024          -0.998       1.070e+00          0.1786
 381       9.311e+00      -9.040e+00       2.264e-01           0.078          -0.020          -0.997       1.267e+00          0.1657
 382       8.620e+00      -9.040e+00       1.736e-01           0.074          -0.021          -0.997       1.389e+00          0.1479
 383       7.887e+00      -9.040e+00       1.276e-01           0.051          -0.029          -0.998       1.429e+00          0.1480
 384       7.153e+00      -9.041e+00       1.053e-01           0.009          -0.045          -0.999       1.387e+00          0.1912
 385       6.462e+00      -9.041e+00       1.116e-01          -0.029          -0.061          -0.998       1.266e+00          0.2786
 386       5.854e+00      -9.040e+00       1.395e-01          -0.065          -0.078          -0.995       1.073e+00          0.4044
 387       5.364e+00      -9.040e+00       1.814e-01          -0.110          -0.099          -0.989       8.193e-01          0.5795
 388       5.021e+00      -9.040e+00       2.333e-01          -0.208          -0.148          -0.967       5.230e-01          0.7700
 389       4.844e+00      -9.040e+00       2.965e-01          -0.579          -0.335          -0.743       2.312e-01         -0.5761
 390       4.844e+00      -9.040e+00       3.771e-01          -0.672          -0.333           0.662       2.601e-01         -5.4588
 391       5.021e+00      -9.040e+00       4.664e-01          -0.311          -0.134           0.941       5.379e-01         -2.8033
 392       5.364e+00      -9.040e+00       5.513e-01          -0.191          -0.071           0.979       8.278e-01         -1.5198
 393       5.854e+00      -9.039e+00       6.275e-01          -0.124          -0.038           0.991       1.077e+00         -1.1134
 394       6.462e+00      -9.039e+00       6.848e-01          -0.068          -0.012           0.998       1.266e+00         -0.9139
 395       7.153e+00      -9.039e+00       7.116e-01          -0.012           0.011           1.000       1.385e+00         -0.7690
 396       7.887e+00      -9.039e+00       6.978e-01           0.049           0.035           0.998       1.429e+00         -0.6076
 397       8.620e+00      -9.039e+00       6.465e-01           0.091           0.049           0.995       1.392e+00         -0.4337
 398       9.311e+00      -9.040e+00       5.731e-01           0.121           0.058           0.991       1.274e+00         -0.2753
 399       9.919e+00      -9.040e+00       4.923e-01           0.144           0.064           0.988       1.081e+00         -0.1255
 400       1.041e+01      -9.040e+00       4.195e-01           0.151           0.066           0.986       8.215e-01          0.0077
 401       1.075e+01      -9.040e+00       3.669e-01           0.152           0.066           0.986       5.129e-01          0.1319
 402       1.093e+01      -9.040e+00       3.390e-01           0.165           0.069           0.984       1.748e-01          0.2148
Strip 16
 403       1.054e+01      -7.096e+00       2.568e-01           0.069          -0.023          -0.997       1.959e-01          0.2025
 404       1.034e+01      -7.096e+00       2.454e-01           0.055          -0.026          -0.998       5.758e-01          0.1943
 405       9.963e+00      -7.096e+00       2.244e-01           0.056          -0.026          -0.998       9.225e-01          0.1808
 406       9.422e+00      -7.096e+00       1.921e-01           0.063          -0.024          -0.998       1.216e+00          0.1749
 407       8.750e+00      -7.096e+00       1.441e-01           0.078          -0.020          -0.997       1.440e+00          0.1601
 408       7.987e+00      -7.096e+00       8.580e-02           0.074          -0.021          -0.997       1.579e+00          0.1398
 409       7.177e+00      -7.096e+00       3.503e-02           0.051          -0.029          -0.998       1.624e+00          0.1367
 410       6.367e+00      -7.096e+00       1.039e-02           0.009          -0.045          -0.999       1.575e+00          0.1764
 411       5.604e+00      -7.096e+00       1.739e-02          -0.029          -0.061          -0.998       1.438e+00          0.2603
 412       4.932e+00      -7.096e+00       4.817e-02          -0.065          -0.078          -0.995       1.220e+00          0.3824
 413       4.391e+00      -7.096e+00       9.444e-02          -0.110          -0.099          -0.989       9.310e-01          0.5552
 414       4.012e+00      -7.096e+00       1.517e-01          -0.208          -0.148          -0.967       5.943e-01          0.7669
 415       3.817e+00      -7.096e+00       2.216e-01          -0.579          -0.335          -0.743       2.627e-01         -0.3336
 416       3.817e+00      -7.096e+00       3.106e-01          -0.672          -0.333           0.662       2.956e-01         -4.9189
 417       4.012e+00      -7.096e+00       4.092e-01          -0.312          -0.134           0.941       6.111e-01         -2.5937
 418       4.391e+00      -7.096e+00       5.030e-01          -0.191          -0.071           0.979       9.405e-01         -1.4243
 419       4.932e+00      -7.096e+00       5.871e-01          -0.124          -0.038           0.991       1.224e+00         -1.0536
 420       5.604e+00      -7.095e+00       6.504e-01          -0.068          -0.012           0.998       1.439e+00         -0.8720
 421       6.367e+00      -7.095e+00       6.800e-01          -0.012           0.011           1.000       1.574e+00         -0.7388
 422       7.177e+00      -7.095e+00       6.647e-01           0.049           0.035           0.998       1.624e+00         -0.5861
 423       7.987e+00      -7.096e+00       6.081e-01           0.091           0.049           0.995       1.582e+00         -0.4191
 424       8.750e+00      -7.096e+00       5.270e-01           0.121           0.058           0.991       1.448e+00         -0.2657
 425       9.422e+00      -7.096e+00       4.378e-01           0.144           0.064           0.988       1.228e+00         -0.1195
 426       9.963e+00      -7.096e+00       3.574e-01           0.151           0.066           0.986       9.334e-01          0.0111
 427       1.034e+01      -7.096e+00       2.993e-01           0.152           0.066           0.986       5.828e-01          0.1332
 428       1.054e+01      -7.096e+00       2.685e-01           0.165           0.069           0.984       1.986e-01          0.2149
Strip 17
 429       1.014e+01      -5.104e+00       1.834e-01           0.069          -0.023          -0.997       2.194e-01          0.2019
 430       9.922e+00      -5.104e+00       1.709e-01           0.055          -0.026          -0.998       6.450e-01          0.1930
 431       9.506e+00      -5.104e+00       1.479e-01           0.056          -0.026          -0.998       1.033e+00          0.1783
 432       8.912e+00      -5.104e+00       1.124e-01           0.063          -0.024          -0.998       1.362e+00          0.1712
 433       8.176e+00      -5.104e+00       5.980e-02           0.078          -0.020          -0.997       1.613e+00          0.1547
 434       7.339e+00      -5.104e+00      -4.173e-03           0.074          -0.021          -0.997       1.768e+00          0.1319
 435       6.450e+00      -5.104e+00      -5.986e-02           0.051          -0.029          -0.998       1.819e+00          0.1255
 436       5.561e+00      -5.104e+00      -8.689e-02           0.009          -0.045          -0.999       1.765e+00          0.1615
 437       4.724e+00      -5.104e+00      -7.921e-02          -0.029          -0.061          -0.998       1.611e+00          0.2412
 438       3.988e+00      -5.104e+00      -4.544e-02          -0.065          -0.078          -0.995       1.366e+00          0.3585
 439       3.394e+00      -5.104e+00       5.307e-03          -0.110          -0.099          -0.989       1.043e+00          0.5274
 440       2.978e+00      -5.104e+00       6.815e-02          -0.207          -0.148          -0.967       6.658e-01          0.7574
 441       2.764e+00      -5.104e+00       1.448e-01          -0.579          -0.335          -0.743       2.943e-01         -0.0853
 442       2.764e+00      -5.103e+00       2.424e-01          -0.672          -0.333           0.661       3.310e-01         -4.3306
 443       2.978e+00      -5.103e+00       3.506e-01          -0.312          -0.134           0.941       6.844e-01         -2.3598
 444       3.394e+00      -5.103e+00       4.535e-01          -0.191          -0.071           0.979       1.053e+00         -1.3168
 445       3.988e+00      -5.103e+00       5.457e-01          -0.124          -0.038           0.991       1.371e+00         -0.9870
 446       4.724e+00      -5.103e+00       6.152e-01          -0.068          -0.012           0.998       1.611e+00         -0.8268
 447       5.561e+00      -5.103e+00       6.476e-01          -0.012           0.011           1.000       1.763e+00         -0.7076
 448       6.450e+00      -5.103e+00       6.309e-01           0.049           0.035           0.998       1.819e+00         -0.5655
 449       7.339e+00      -5.103e+00       5.688e-01           0.091           0.049           0.995       1.772e+00         -0.4062
 450       8.176e+00      -5.103e+00       4.798e-01           0.121           0.058           0.991       1.622e+00         -0.2579
 451       8.912e+00      -5.103e+00       3.820e-01           0.144           0.064           0.988       1.376e+00         -0.1152
 452       9.506e+00      -5.103e+00       2.937e-01           0.151           0.066           0.986       1.046e+00          0.0131
 453       9.922e+00      -5.103e+00       2.300e-01           0.152           0.066           0.986       6.528e-01          0.1336
 454       1.014e+01      -5.103e+00       1.963e-01           0.165           0.069           0.984       2.224e-01          0.2143
Strip 18
 455       9.727e+00      -3.076e+00       1.087e-01           0.069          -0.023          -0.997       2.425e-01          0.2004
 456       9.494e+00      -3.076e+00       9.510e-02           0.055          -0.026          -0.998       7.127e-01          0.1911
 457       9.041e+00      -3.076e+00       7.000e-02           0.056          -0.026          -0.998       1.142e+00          0.1756
 458       8.394e+00      -3.076e+00       3.133e-02           0.063          -0.024          -0.998       1.505e+00          0.1675
 459       7.591e+00      -3.076e+00      -2.599e-02           0.078          -0.020          -0.997       1.782e+00          0.1497
 460       6.678e+00      -3.076e+00      -9.572e-02           0.074          -0.021          -0.997       1.954e+00          0.1249
 461       5.710e+00      -3.076e+00      -1.564e-01           0.051          -0.029          -0.998       2.010e+00          0.1159
 462       4.741e+00      -3.076e+00      -1.859e-01           0.009          -0.045          -0.999       1.950e+00          0.1483
 463       3.829e+00      -3.076e+00      -1.775e-01          -0.029          -0.061          -0.998       1.781e+00          0.2232
 464       3.026e+00      -3.076e+00      -1.407e-01          -0.065          -0.078          -0.995       1.510e+00          0.3340
 465       2.379e+00      -3.076e+00      -8.538e-02          -0.110          -0.099          -0.989       1.152e+00          0.4955
 466       1.926e+00      -3.076e+00      -1.689e-02          -0.207          -0.148          -0.967       7.357e-01          0.7399
 467       1.692e+00      -3.076e+00       6.665e-02          -0.579          -0.335          -0.743       3.253e-01          0.1846
 468       1.692e+00      -3.076e+00       1.730e-01          -0.672          -0.333           0.661       3.658e-01         -3.6399
 469       1.926e+00      -3.076e+00       2.910e-01          -0.312          -0.134           0.941       7.563e-01         -2.0733
 470       2.379e+00      -3.076e+00       4.031e-01          -0.191          -0.071           0.979       1.164e+00         -1.1839
 471       3.026e+00      -3.076e+00       5.036e-01          -0.124          -0.038           0.991       1.515e+00         -0.9067
 472       3.829e+00      -3.076e+00       5.794e-01          -0.068          -0.012           0.998       1.781e+00         -0.7758
 473       4.741e+00      -3.076e+00       6.147e-01          -0.012           0.011           1.000       1.948e+00         -0.6765
 474       5.710e+00      -3.076e+00       5.965e-01           0.049           0.035           0.998       2.010e+00         -0.5488
 475       6.678e+00      -3.076e+00       5.287e-01           0.091           0.049           0.995       1.958e+00         -0.3990
 476       7.591e+00      -3.076e+00       4.318e-01           0.121           0.058           0.991       1.793e+00         -0.2558
 477       8.394e+00      -3.076e+00       3.252e-01           0.144           0.064           0.988       1.521e+00         -0.1156
 478       9.041e+00      -3.076e+00       2.290e-01           0.151           0.066           0.986       1.155e+00          0.0117
 479       9.494e+00      -3.076e+00       1.595e-01           0.152           0.066           0.986       7.214e-01          0.1318
 480       9.727e+00      -3.076e+00       1.228e-01           0.165           0.069           0.984       2.458e-01          0.2123
Strip 19
 481       9.315e+00      -1.028e+00       3.326e-02           0.069          -0.023          -0.997       2.645e-01          0.1977
 482       9.062e+00      -1.028e+00       1.852e-02           0.055          -0.026          -0.998       7.774e-01          0.1879
 483       8.570e+00      -1.028e+00      -8.683e-03           0.056          -0.026          -0.998       1.246e+00          0.1712
 484       7.869e+00      -1.028e+00      -5.057e-02           0.063          -0.024          -0.998       1.642e+00          0.1617
 485       7.000e+00      -1.028e+00      -1.127e-01           0.078          -0.020          -0.997       1.944e+00          0.1429
 486       6.011e+00      -1.028e+00      -1.882e-01           0.074          -0.021          -0.997       2.131e+00          0.1182
 487       4.962e+00      -1.028e+00      -2.540e-01           0.051          -0.029          -0.998       2.192e+00          0.1108
 488       3.913e+00      -1.028e+00      -2.859e-01           0.009          -0.045          -0.999       2.127e+00          0.1449
 489       2.925e+00      -1.028e+00      -2.768e-01          -0.029          -0.061          -0.998       1.942e+00          0.2182
 490       2.055e+00      -1.028e+00      -2.369e-01          -0.065          -0.078          -0.995       1.647e+00          0.3235
 491       1.354e+00      -1.028e+00      -1.770e-01          -0.110          -0.099          -0.989       1.257e+00          0.4733
 492       8.627e-01      -1.028e+00      -1.028e-01          -0.207          -0.148          -0.967       8.026e-01          0.7143
 493       6.098e-01      -1.028e+00      -1.231e-02          -0.579          -0.335          -0.743       3.549e-01          0.4881
 494       6.098e-01      -1.028e+00       1.029e-01          -0.672          -0.333           0.661       3.989e-01         -2.6840
 495       8.627e-01      -1.028e+00       2.307e-01          -0.312          -0.134           0.941       8.249e-01         -1.6292
 496       1.354e+00      -1.028e+00       3.522e-01          -0.191          -0.071           0.979       1.270e+00         -0.9688
 497       2.055e+00      -1.028e+00       4.611e-01          -0.124          -0.038           0.991       1.652e+00         -0.7863
 498       2.925e+00      -1.028e+00       5.431e-01          -0.068          -0.012           0.998       1.942e+00         -0.7126
 499       3.913e+00      -1.028e+00       5.814e-01          -0.012           0.011           1.000       2.125e+00         -0.6484
 500       4.962e+00      -1.028e+00       5.617e-01           0.049           0.035           0.998       2.192e+00         -0.5455
 501       6.011e+00      -1.028e+00       4.883e-01           0.091           0.049           0.995       2.136e+00         -0.4100
 502       7.000e+00      -1.028e+00       3.833e-01           0.121           0.058           0.991       1.955e+00         -0.2720
 503       7.869e+00      -1.028e+00       2.677e-01           0.144           0.064           0.988       1.659e+00         -0.1307
 504       8.570e+00      -1.028e+00       1.635e-01           0.151           0.066           0.986       1.260e+00          0.0004
 505       9.062e+00      -1.028e+00       8.830e-02           0.152           0.066           0.986       7.869e-01          0.1246
 506       9.315e+00      -1.028e+00       4.848e-02           0.165           0.069           0.984       2.681e-01          0.2074
Strip 20
 507       9.315e+00       1.028e+00       3.326e-02           0.069           0.023          -0.997       2.645e-01          0.1977
 508       9.062e+00       1.028e+00       1.852e-02           0.055           0.026          -0.998       7.774e-01          0.1879
 509       8.570e+00       1.028e+00      -8.683e-03           0.056           0.026          -0.998       1.246e+00          0.1712
 510       7.869e+00       1.028e+00      -5.057e-02           0.063           0.024          -0.998       1.642e+00          0.1617
 511       7.000e+00       1.028e+00      -1.127e-01           0.078           0.020          -0.997       1.944e+00          0.1429
 512       6.011e+00       1.028e+00      -1.882e-01           0.074           0.021          -0.997       2.131e+00          0.1182
 513       4.962e+00       1.028e+00      -2.540e-01           0.051           0.029          -0.998       2.192e+00          0.1108
 514       3.913e+00       1.028e+00      -2.859e-01           0.009           0.045          -0.999       2.127e+00          0.1449
 515       2.925e+00       1.028e+00      -2.768e-01          -0.029           0.061          -0.998       1.942e+00          0.2182
 516       2.055e+00       1.028e+00      -2.369e-01          -0.065           0.078          -0.995       1.647e+00          0.3235
 517       1.354e+00       1.028e+00      -1.770e-01          -0.110           0.099          -0.989       1.257e+00          0.4733
 518       8.627e-01       1.028e+00      -1.028e-01          -0.207           0.148          -0.967       8.026e-01          0.7143
 519       6.098e-01       1.028e+00      -1.231e-02          -0.579           0.335          -0.743       3.549e-01          0.4881
 520       6.098e-01       1.028e+00       1.029e-01          -0.672           0.333           0.661       3.989e-01         -2.6840
 521       8.627e-01       1.028e+00       2.307e-01          -0.312           0.134           0.941       8.249e-01         -1.6292
 522       1.354e+00       1.028e+00       3.522e-01          -0.191           0.071           0.979       1.270e+00         -0.9688
 523       2.055e+00       1.028e+00       4.611e-01          -0.124           0.038           0.991       1.652e+00         -0.7863
 524       2.925e+00       1.028e+00       5.431e-01          -0.068           0.012           0.998       1.942e+00         -0.7126
 525       3.913e+00       1.028e+00       5.814e-01          -0.012          -0.011           1.000       2.125e+00         -0.6484
 526       4.962e+00       1.028e+00       5.617e-01           0.049          -0.035           0.998       2.192e+00         -0.5455
 527       6.011e+00       1.028e+00       4.883e-01           0.091          -0.049           0.995       2.136e+00         -0.4100
 528       7.000e+00       1.028e+00       3.833e-01           0.121          -0.058           0.991       1.955e+00         -0.2720
 529       7.869e+00       1.028e+00       2.677e-01           0.144          -0.064           0.988       1.659e+00         -0.1307
 530       8.570e+00       1.028e+00       1.635e-01           0.151          -0.066           0.986       1.260e+00          0.0004
 531       9.062e+00       1.028e+00       8.830e-02           0.152          -0.066           0.986       7.869e-01          0.1246
 532       9.315e+00       1.028e+00       4.848e-02           0.165          -0.069           0.984       2.681e-01          0.2074
Strip 21
 533       9.727e+00       3.076e+00       1.087e-01           0.069           0.023          -0.997       2.425e-01          0.2004
 534       9.494e+00       3.076e+00       9.510e-02           0.055           0.026          -0.998       7.127e-01          0.1911
 535       9.041e+00       3.076e+00       7.000e-02           0.056           0.026          -0.998       1.142e+00          0.1756
 536       8.394e+00       3.076e+00       3.133e-02           0.063           0.024          -0.998       1.505e+00          0.1675
 537       7.591e+00       3.076e+00      -2.599e-02           0.078           0.020          -0.997       1.782e+00          0.1497
 538       6.678e+00       3.076e+00      -9.572e-02           0.074           0.021          -0.997       1.954e+00          0.1249
 539       5.710e+00       3.076e+00      -1.564e-01           0.051           0.029          -0.998       2.010e+00          0.1159
 540       4.741e+00       3.076e+00      -1.859e-01           0.009           0.045          -0.999       1.950e+00          0.1483
 541       3.829e+00       3.076e+00      -1.775e-01          -0.029           0.061          -0.998       1.781e+00          0.2232
 542       3.026e+00       3.076e+00      -1.407e-01          -0.065           0.078          -0.995       1.510e+00          0.3340
 543       2.379e+00       3.076e+00      -8.538e-02          -0.110           0.099          -0.989       1.152e+00          0.4955
 544       1.926e+00       3.076e+00      -1.689e-02          -0.207           0.148          -0.967       7.357e-01          0.7399
 545       1.692e+00       3.076e+00       6.665e-02          -0.579           0.335          -0.743       3.253e-01          0.1846
 546       1.692e+00       3.076e+00       1.730e-01          -0.672           0.333           0.661       3.658e-01         -3.6399
 547       1.926e+00       3.076e+00       2.910e-01          -0.312           0.134           0.941       7.563e-01         -2.0733
 548       2.379e+00       3.076e+00       4.031e-01          -0.191           0.071           0.979       1.164e+00         -1.1839
 549       3.026e+00       3.076e+00       5.036e-01          -0.124           0.038           0.991       1.515e+00         -0.9067
 550       3.829e+00       3.076e+00       5.794e-01          -0.068           0.012           0.998       1.781e+00         -0.7758
 551       4.741e+00       3.076e+00       6.147e-01          -0.012          -0.011           1.000       1.948e+00         -0.6765
 552       5.710e+00       3.076e+00       5.965e-01           0.049          -0.035           0.998       2.010e+00         -0.5488
 553       6.678e+00       3.076e+00       5.287e-01           0.091          -0.049           0.995       1.958e+00         -0.3990
 554       7.591e+00       3.076e+00       4.318e-01           0.121          -0.058           0.991       1.793e+00         -0.2558
 555       8.394e+00       3.076e+00       3.252e-01           0.144          -0.064           0.988       1.521e+00         -0.1156
 556       9.041e+00       3.076e+00       2.290e-01           0.151          -0.066           0.986       1.155e+00          0.0117
 557       9.494e+00       3.076e+00       1.595e-01           0.152          -0.066           0.986       7.214e-01          0.1318
 558       9.727e+00       3.076e+00       1.228e-01           0.165          -0.069           0.984       2.458e-01          0.2123
Strip 22
 559       1.014e+01       5.104e+00       1.834e-01           0.069           0.023          -0.997       2.194e-01          0.2019
 560       9.922e+00       5.104e+00       1.709e-01           0.055           0.026          -0.998       6.450e-01          0.1930
 561       9.506e+00       5.104e+00       1.479e-01           0.056           0.026          -0.998       1.033e+00          0.1783
 562       8.912e+00       5.104e+00       1.124e-01           0.063           0.024          -0.998       1.362e+00          0.1712
 563       8.176e+00       5.104e+00       5.980e-02           0.078           0.020          -0.997       1.613e+00          0.1547
 564       7.339e+00       5.104e+00      -4.173e-03           0.074           0.021          -0.997       1.768e+00          0.1319
 565       6.450e+00       5.104e+00      -5.986e-02           0.051           0.029          -0.998       1.819e+00          0.1255
 566       5.561e+00       5.104e+00      -8.689e-02           0.009           0.045          -0.999       1.765e+00          0.1615
 567       4.724e+00       5.104e+00      -7.921e-02          -0.029           0.061          -0.998       1.611e+00          0.2412
[...]
 852       1.253e+01       2.234e+01       7.547e-01           0.009           0.045          -0.999       1.866e-01          0.2932
 853       1.234e+01       2.234e+01       7.565e-01          -0.029           0.061          -0.998       1.703e-01          0.4014
 854       1.216e+01       2.234e+01       7.645e-01          -0.066           0.078          -0.995       1.443e-01          0.5424
 855       1.202e+01       2.234e+01       7.764e-01          -0.110           0.099          -0.989       1.101e-01          0.7056
 856       1.192e+01       2.234e+01       7.912e-01          -0.208           0.148          -0.967       7.026e-02          0.6304
 857       1.187e+01       2.234e+01       8.093e-01          -0.581           0.336          -0.741       3.100e-02         -2.9718
 858       1.187e+01       2.234e+01       8.323e-01          -0.670           0.331           0.665       3.512e-02         -9.8611
 859       1.192e+01       2.234e+01       8.577e-01          -0.311           0.134           0.941       7.253e-02         -4.4032
 860       1.202e+01       2.234e+01       8.820e-01          -0.190           0.071           0.979       1.115e-01         -2.2286
 861       1.216e+01       2.234e+01       9.037e-01          -0.124           0.038           0.992       1.450e-01         -1.5554
 862       1.234e+01       2.234e+01       9.200e-01          -0.068           0.012           0.998       1.704e-01         -1.2254
 863       1.253e+01       2.234e+01       9.277e-01          -0.012          -0.011           1.000       1.864e-01         -0.9972
 864       1.274e+01       2.234e+01       9.237e-01           0.049          -0.035           0.998       1.922e-01         -0.7728
 865       1.295e+01       2.234e+01       9.091e-01           0.091          -0.049           0.995       1.873e-01         -0.5502
 866       1.315e+01       2.234e+01       8.882e-01           0.121          -0.058           0.991       1.714e-01         -0.3557
 867       1.332e+01       2.234e+01       8.651e-01           0.144          -0.064           0.988       1.454e-01         -0.1788
 868       1.346e+01       2.234e+01       8.443e-01           0.151          -0.066           0.986       1.105e-01         -0.0255
 869       1.356e+01       2.234e+01       8.293e-01           0.152          -0.066           0.986       6.897e-02          0.1143
 870       1.361e+01       2.234e+01       8.214e-01           0.166          -0.069           0.984       2.350e-02          0.2057
Strip 34
 871       1.378e+01       2.317e+01       8.488e-01           0.069           0.023          -0.997       1.622e-02          0.1953
 872       1.373e+01       2.317e+01       8.463e-01           0.055           0.026          -0.998       4.767e-02          0.1937
 873       1.365e+01       2.317e+01       8.417e-01           0.056           0.026          -0.998       7.638e-02          0.1912
 874       1.353e+01       2.317e+01       8.347e-01           0.063           0.024          -0.998       1.007e-01          0.1971
 875       1.339e+01       2.317e+01       8.242e-01           0.078           0.020          -0.997       1.192e-01          0.1979
 876       1.322e+01       2.317e+01       8.115e-01           0.074           0.021          -0.997       1.307e-01          0.1993
 877       1.304e+01       2.317e+01       8.004e-01           0.051           0.029          -0.998       1.345e-01          0.2234
 878       1.287e+01       2.317e+01       7.950e-01           0.009           0.045          -0.999       1.304e-01          0.2918
 879       1.270e+01       2.317e+01       7.966e-01          -0.029           0.061          -0.998       1.190e-01          0.4022
 880       1.255e+01       2.317e+01       8.033e-01          -0.066           0.078          -0.995       1.009e-01          0.5449
 881       1.244e+01       2.317e+01       8.134e-01          -0.110           0.099          -0.989       7.698e-02          0.7073
 882       1.235e+01       2.317e+01       8.259e-01          -0.208           0.148          -0.967       4.909e-02          0.6122
 883       1.231e+01       2.317e+01       8.411e-01          -0.582           0.336          -0.740       2.165e-02         -3.1497
 884       1.231e+01       2.317e+01       8.605e-01          -0.669           0.331           0.665       2.457e-02        -10.1267
 885       1.235e+01       2.317e+01       8.820e-01          -0.311           0.133           0.941       5.073e-02         -4.4938
 886       1.244e+01       2.317e+01       9.025e-01          -0.190           0.071           0.979       7.799e-02         -2.2656
 887       1.255e+01       2.317e+01       9.208e-01          -0.124           0.038           0.992       1.014e-01         -1.5754
 888       1.270e+01       2.317e+01       9.346e-01          -0.068           0.012           0.998       1.191e-01         -1.2367
 889       1.287e+01       2.317e+01       9.411e-01          -0.012          -0.011           1.000       1.303e-01         -1.0032
 890       1.304e+01       2.317e+01       9.377e-01           0.049          -0.035           0.998       1.343e-01         -0.7755
 891       1.322e+01       2.317e+01       9.254e-01           0.091          -0.049           0.995       1.309e-01         -0.5510
 892       1.339e+01       2.317e+01       9.077e-01           0.121          -0.058           0.991       1.198e-01         -0.3560
 893       1.353e+01       2.317e+01       8.883e-01           0.144          -0.064           0.988       1.016e-01         -0.1792
 894       1.365e+01       2.317e+01       8.707e-01           0.151          -0.066           0.986       7.721e-02         -0.0263
 895       1.373e+01       2.317e+01       8.580e-01           0.152          -0.066           0.986       4.821e-02          0.1128
 896       1.378e+01       2.317e+01       8.513e-01           0.166          -0.069           0.984       1.643e-02          0.2038
Strip 35
 897       1.391e+01       2.384e+01       8.734e-01           0.069           0.023          -0.997       1.084e-02          0.1856
 898       1.388e+01       2.384e+01       8.712e-01           0.055           0.026          -0.998       3.186e-02          0.1822
 899       1.380e+01       2.384e+01       8.674e-01           0.056           0.026          -0.998       5.104e-02          0.1766
 900       1.370e+01       2.384e+01       8.613e-01           0.063           0.024          -0.998       6.728e-02          0.1800
 901       1.358e+01       2.384e+01       8.524e-01           0.078           0.020          -0.997       7.969e-02          0.1788
 902       1.344e+01       2.384e+01       8.416e-01           0.074           0.021          -0.997       8.736e-02          0.1791
 903       1.329e+01       2.384e+01       8.322e-01           0.051           0.029          -0.998       8.985e-02          0.2035
 904       1.314e+01       2.384e+01       8.276e-01           0.009           0.045          -0.999       8.715e-02          0.2736
 905       1.300e+01       2.384e+01       8.289e-01          -0.029           0.061          -0.998       7.954e-02          0.3871
 906       1.287e+01       2.384e+01       8.346e-01          -0.066           0.078          -0.995       6.740e-02          0.5335
 907       1.277e+01       2.384e+01       8.432e-01          -0.110           0.099          -0.989       5.143e-02          0.6994
 908       1.270e+01       2.384e+01       8.539e-01          -0.208           0.149          -0.967       3.279e-02          0.6080
 909       1.266e+01       2.384e+01       8.668e-01          -0.583           0.336          -0.740       1.445e-02         -3.1545
 910       1.266e+01       2.383e+01       8.833e-01          -0.668           0.330           0.666       1.644e-02        -10.0910
 911       1.270e+01       2.383e+01       9.017e-01          -0.310           0.133           0.941       3.392e-02         -4.4767
 912       1.277e+01       2.383e+01       9.191e-01          -0.190           0.071           0.979       5.213e-02         -2.2526
 913       1.287e+01       2.383e+01       9.347e-01          -0.124           0.038           0.992       6.777e-02         -1.5601
 914       1.300e+01       2.383e+01       9.464e-01          -0.068           0.012           0.998       7.962e-02         -1.2190
 915       1.314e+01       2.383e+01       9.519e-01          -0.012          -0.011           1.000       8.706e-02         -0.9844
 916       1.329e+01       2.383e+01       9.491e-01           0.049          -0.035           0.998       8.976e-02         -0.7578
 917       1.344e+01       2.383e+01       9.386e-01           0.091          -0.049           0.995       8.744e-02         -0.5365
 918       1.358e+01       2.383e+01       9.235e-01           0.121          -0.058           0.991       8.003e-02         -0.3458
 919       1.370e+01       2.383e+01       9.070e-01           0.144          -0.064           0.988       6.788e-02         -0.1737
 920       1.380e+01       2.383e+01       8.920e-01           0.151          -0.066           0.986       5.158e-02         -0.0251
 921       1.388e+01       2.383e+01       8.812e-01           0.152          -0.066           0.986       3.221e-02          0.1102
 922       1.391e+01       2.384e+01       8.755e-01           0.166          -0.069           0.984       1.097e-02          0.1992
Strip 36
 923       1.401e+01       2.434e+01       8.919e-01           0.069           0.023          -0.997       6.765e-03          0.1542
 924       1.398e+01       2.434e+01       8.901e-01           0.055           0.026          -0.998       1.989e-02          0.1462
 925       1.392e+01       2.434e+01       8.867e-01           0.056           0.026          -0.998       3.186e-02          0.1339
 926       1.383e+01       2.434e+01       8.815e-01           0.063           0.024          -0.998       4.200e-02          0.1312
 927       1.373e+01       2.434e+01       8.738e-01           0.078           0.020          -0.997       4.974e-02          0.1247
 928       1.360e+01       2.434e+01       8.644e-01           0.074           0.021          -0.997       5.453e-02          0.1204
 929       1.347e+01       2.434e+01       8.562e-01           0.051           0.029          -0.998       5.609e-02          0.1418
 930       1.334e+01       2.434e+01       8.523e-01           0.009           0.045          -0.999       5.440e-02          0.2125
 931       1.322e+01       2.434e+01       8.534e-01          -0.029           0.061          -0.998       4.964e-02          0.3313
 932       1.311e+01       2.434e+01       8.583e-01          -0.066           0.078          -0.995       4.207e-02          0.4870
 933       1.302e+01       2.434e+01       8.658e-01          -0.110           0.100          -0.989       3.209e-02          0.6669
 934       1.296e+01       2.434e+01       8.750e-01          -0.208           0.149          -0.967       2.046e-02          0.6252
 935       1.293e+01       2.434e+01       8.863e-01          -0.583           0.337          -0.739       9.011e-03         -2.8356
 936       1.293e+01       2.434e+01       9.006e-01          -0.668           0.330           0.667       1.027e-02         -9.4955
 937       1.296e+01       2.434e+01       9.165e-01          -0.310           0.133           0.941       2.119e-02         -4.2584
 938       1.302e+01       2.434e+01       9.316e-01          -0.190           0.071           0.979       3.256e-02         -2.1423
 939       1.311e+01       2.434e+01       9.451e-01          -0.124           0.038           0.992       4.231e-02         -1.4738
 940       1.322e+01       2.434e+01       9.554e-01          -0.068           0.012           0.998       4.971e-02         -1.1419
 941       1.334e+01       2.434e+01       9.601e-01          -0.012          -0.011           1.000       5.434e-02         -0.9159
 942       1.347e+01       2.434e+01       9.577e-01           0.049          -0.035           0.998       5.602e-02         -0.7022
 943       1.360e+01       2.434e+01       9.485e-01           0.091          -0.049           0.995       5.457e-02         -0.4973
 944       1.373e+01       2.434e+01       9.355e-01           0.121          -0.058           0.991       4.995e-02         -0.3238
 945       1.383e+01       2.434e+01       9.211e-01           0.144          -0.064           0.987       4.237e-02         -0.1674
 946       1.392e+01       2.434e+01       9.081e-01           0.151          -0.066           0.986       3.219e-02         -0.0318
 947       1.398e+01       2.434e+01       8.988e-01           0.152          -0.066           0.986       2.010e-02          0.0931
 948       1.401e+01       2.434e+01       8.938e-01           0.166          -0.069           0.984       6.849e-03          0.1769
Strip 37
 949       1.408e+01       2.468e+01       9.044e-01           0.069           0.023          -0.997       3.662e-03         -0.0091
 950       1.405e+01       2.468e+01       9.028e-01           0.054           0.026          -0.998       1.076e-02         -0.0223
 951       1.400e+01       2.468e+01       8.997e-01           0.056           0.026          -0.998       1.724e-02         -0.0397
 952       1.392e+01       2.468e+01       8.950e-01           0.063           0.024          -0.998       2.273e-02         -0.0413
 953       1.382e+01       2.468e+01       8.881e-01           0.078           0.020          -0.997       2.693e-02         -0.0415
 954       1.371e+01       2.468e+01       8.797e-01           0.074           0.021          -0.997       2.952e-02         -0.0406
 955       1.360e+01       2.468e+01       8.723e-01           0.051           0.029          -0.998       3.036e-02         -0.0207
 956       1.348e+01       2.468e+01       8.688e-01           0.009           0.045          -0.999       2.944e-02          0.0418
 957       1.337e+01       2.468e+01       8.698e-01          -0.029           0.061          -0.998       2.687e-02          0.1559
 958       1.327e+01       2.468e+01       8.742e-01          -0.066           0.078          -0.995       2.276e-02          0.3231
 959       1.319e+01       2.468e+01       8.809e-01          -0.110           0.100          -0.989       1.737e-02          0.5395
 960       1.314e+01       2.468e+01       8.892e-01          -0.208           0.149          -0.967       1.107e-02          0.6262
 961       1.311e+01       2.468e+01       8.993e-01          -0.584           0.337          -0.739       4.873e-03         -2.0730
 962       1.311e+01       2.468e+01       9.122e-01          -0.667           0.330           0.668       5.564e-03         -8.0499
 963       1.314e+01       2.468e+01       9.265e-01          -0.310           0.133           0.941       1.147e-02         -3.7277
 964       1.319e+01       2.468e+01       9.400e-01          -0.190           0.071           0.979       1.763e-02         -1.8721
 965       1.327e+01       2.468e+01       9.522e-01          -0.124           0.038           0.992       2.291e-02         -1.2690
 966       1.337e+01       2.468e+01       9.613e-01          -0.068           0.012           0.998       2.691e-02         -0.9769
 967       1.348e+01       2.468e+01       9.656e-01          -0.012          -0.011           1.000       2.941e-02         -0.7969
 968       1.360e+01       2.468e+01       9.634e-01           0.049          -0.035           0.998       3.032e-02         -0.6391
 969       1.371e+01       2.468e+01       9.552e-01           0.091          -0.049           0.995       2.953e-02         -0.4944
 970       1.382e+01       2.468e+01       9.435e-01           0.121          -0.058           0.991       2.703e-02         -0.3783
 971       1.392e+01       2.468e+01       9.306e-01           0.144          -0.064           0.987       2.293e-02         -0.2705
 972       1.400e+01       2.468e+01       9.190e-01           0.151          -0.066           0.986       1.742e-02         -0.1700
 973       1.405e+01       2.468e+01       9.106e-01           0.152          -0.066           0.986       1.088e-02         -0.0671
 974       1.408e+01       2.468e+01       9.061e-01           0.166          -0.069           0.984       3.706e-03          0.0079
Strip 38
 975       1.412e+01       2.485e+01       9.107e-01           0.069           0.023          -0.997       1.154e-03         -0.2381
 976       1.409e+01       2.485e+01       9.091e-01           0.054           0.026          -0.998       3.391e-03         -0.2644
 977       1.404e+01       2.485e+01       9.062e-01           0.056           0.026          -0.998       5.433e-03         -0.2961
 978       1.396e+01       2.485e+01       9.018e-01           0.063           0.024          -0.998       7.162e-03         -0.2962
 979       1.387e+01       2.485e+01       8.953e-01           0.078           0.020          -0.997       8.483e-03         -0.2765
 980       1.377e+01       2.485e+01       8.873e-01           0.074           0.021          -0.997       9.300e-03         -0.2449
 981       1.366e+01       2.485e+01       8.804e-01           0.051           0.029          -0.998       9.565e-03         -0.1983
 982       1.355e+01       2.485e+01       8.771e-01           0.009           0.045          -0.999       9.275e-03         -0.1292
 983       1.344e+01       2.485e+01       8.780e-01          -0.029           0.061          -0.998       8.464e-03         -0.0333
 984       1.335e+01       2.485e+01       8.822e-01          -0.066           0.078          -0.995       7.171e-03          0.1032
 985       1.328e+01       2.485e+01       8.885e-01          -0.110           0.100          -0.989       5.470e-03          0.3219
 986       1.322e+01       2.485e+01       8.963e-01          -0.208           0.149          -0.967       3.486e-03          0.6179
 987       1.320e+01       2.485e+01       9.059e-01          -0.584           0.337          -0.738       1.534e-03         -0.8665
 988       1.320e+01       2.485e+01       9.180e-01          -0.667           0.330           0.668       1.754e-03         -5.8014
 989       1.322e+01       2.485e+01       9.314e-01          -0.310           0.133           0.941       3.616e-03         -2.7690
 990       1.328e+01       2.485e+01       9.442e-01          -0.190           0.071           0.979       5.554e-03         -1.2918
 991       1.335e+01       2.485e+01       9.557e-01          -0.124           0.038           0.992       7.218e-03         -0.8802
 992       1.344e+01       2.485e+01       9.643e-01          -0.068           0.012           0.998       8.477e-03         -0.7225
 993       1.355e+01       2.485e+01       9.684e-01          -0.012          -0.011           1.000       9.266e-03         -0.6304
 994       1.366e+01       2.485e+01       9.663e-01           0.049          -0.035           0.998       9.551e-03         -0.5368
 995       1.377e+01       2.485e+01       9.586e-01           0.091          -0.049           0.995       9.304e-03         -0.4558
 996       1.387e+01       2.485e+01       9.475e-01           0.121          -0.058           0.991       8.514e-03         -0.4102
 997       1.396e+01       2.485e+01       9.353e-01           0.144          -0.064           0.987       7.222e-03         -0.3756
 998       1.404e+01       2.485e+01       9.244e-01           0.151          -0.066           0.986       5.488e-03         -0.3433
 999       1.409e+01       2.485e+01       9.165e-01           0.152          -0.066           0.986       3.427e-03         -0.2926
1000       1.412e+01       2.485e+01       9.123e-01           0.166          -0.069           0.984       1.168e-03         -0.2423










